! Global 
! 11 species 6 reactions
!
ELEMENTS 
C H O N 
END
SPECIES 
CH3NHNH2   CH4   CO   CO2   H   H2   H2O   OH   N2   N2O4   NO2   O2   AR
END
REACTIONS
CH3NHNH2=>CH4+H2+N2                      3.160E+07     0.00    8000.00 !Reaction460
N2O4(+M)=NO2+NO2(+M)                     4.050E+18    -1.10   12840.00 !Reaction496
     LOW / 0.19600E+29 -0.38000E+01  0.12800E+05 /
CH4+2NO2=>N2+2H2O+CO2                    5.000E+15     0.00    9000.00 !Rocflam3
2CH4+CO2+H2O=>3CO+5H2                    1.600E+12     0.00   90000.00 !Rocflam8
OH+H2=H2O+H                              2.160E+08     1.50    3430.00 !Reaction47
H+OH+M=H2O+M                             1.600E+22    -2.00       0.00 !Reaction61
     H2O/5.00/
!Single step
!CH3NHNH2+0.8N2O4=>2.2H2O+0.8H2+CO+1.8N2  1.200E+07     0.00    2000.00 !Smooth curve
!CH3NHNH2+0.8N2O4=>2.2H2O+0.8H2+CO+1.8N2  2.240E+08     0.00    2273.00 !Step type
!     FORD / CH3NHNH2  1.0/
!     FORD / N2O4  0.8/
END
