/*--------------------------------*- C++ -*----------------------------------*\
| =========                 |                                                 |
| \\      /  F ield         | OpenFOAM: The Open Source CFD Toolbox           |
|  \\    /   O peration     | Version:  2212                                  |
|   \\  /    A nd           | Website:  www.openfoam.com                      |
|    \\/     M anipulation  |                                                 |
\*---------------------------------------------------------------------------*/
FoamFile
{
    version     2.0;
    format      ascii;
    arch        "LSB;label=32;scalar=64";
    class       polyBoundaryMesh;
    location    "constant/thruster/polyMesh";
    object      boundary;
}
// * * * * * * * * * * * * * * * * * * * * * * * * * * * * * * * * * * * * * //

3
(
    thruster
    {
        type            wall;
        inGroups        1(wall);
        nFaces          16584;
        startFace       235876;
    }
    thruster_to_fluid
    {
        type            mappedWall;
        inGroups        1(wall);
        nFaces          19428;
        startFace       252460;
        sampleMode      nearestPatchFace;
        sampleRegion    fluid;
        samplePatch     fluid_to_thruster;
    }
    thruster_to_header
    {
        type            mappedWall;
        inGroups        1(wall);
        nFaces          1580;
        startFace       271888;
        sampleMode      nearestPatchFace;
        sampleRegion    header;
        samplePatch     header_to_thruster;
    }
)

// ************************************************************************* //
