/*--------------------------------*- C++ -*----------------------------------*\
| =========                 |                                                 |
| \\      /  F ield         | OpenFOAM: The Open Source CFD Toolbox           |
|  \\    /   O peration     | Version:  v2112                                 |
|   \\  /    A nd           | Website:  www.openfoam.com                      |
|    \\/     M anipulation  |                                                 |
\*---------------------------------------------------------------------------*/
FoamFile
{
    version     2.0;
    format      ascii;
    class       dictionary;
    object      turbulenceProperties;
}
// * * * * * * * * * * * * * * * * * * * * * * * * * * * * * * * * * * * * * //

simulationType      RAS; //RAS; //laminar;

RAS
{
    RASModel        kOmegaSST;

//        kEpsilonCoeffs
//        {
//            Cmu         0.09;
//            C1          1.44;
//            C2          1.92;
//            C3         -0.33; //buoyancy in epsilon eqn
//            sigmak      1.0;
//            sigmaEps    1.3;
//        }
//        realizableKECoeffs
//        {
//            A0          4.0;
//            C2          1.9;
//            sigmak      1.0;
//            sigmaEps    1.2;
//        }
//        RNGkEpsilonCoeffs
//        {
//            Cmu         0.09; //0.0845;
//            C1          1.44; //1.42;
//            C2          1.92; //1.68;
//            C3          -0.33;
//            sigmak      1.0; //0.71942;
//            sigmaEps    1.3; //0.71942;
//            eta0        4.38;
//            beta        0.012;
//        }
//        kOmegaCoeffs
//        {
//            Cmu         0.09;  // Equivalent to betaStar
//            alpha       0.52;
//            beta        0.072;
//            alphak      0.5;
//            alphaOmega  0.5;
//        }
//        kOmegaSSTCoeffs
//        {
//            alphaK1     0.85;
//            alphaK2     1.0;
//            alphaOmega1 0.5;
//            alphaOmega2 0.856;
//            beta1       0.075;
//            beta2       0.0828;
//            betaStar    0.09;
//            gamma1      5/9;
//            gamma2      0.44;
//            a1          0.31;
//            b1          1.0;
//            c1          10.0;
//            F3          no;
//        }        
//        kOmegaSSTCoeffs
//        {
//            // Default SST coefficients
//            alphaK1     0.85;
//            alphaK2     1;
//            alphaOmega1 0.5;
//            alphaOmega2 0.856;
//            beta1       0.075;
//            beta2       0.0828;
//            betaStar    0.09;
//            gamma1      5/9;
//            gamma2      0.44;
//            a1          0.31;
//            b1          1;
//            c1          10;
//            F3          no;
//
//            // Default LM coefficients
//            ca1         2;
//            ca2         0.06;
//            ce1         1;
//            ce2         50;
//            cThetat     0.03;
//            sigmaThetat 2;
//
//            lambdaErr   1e-6;
//            maxLambdaIter 10;
//        }
//        kOmegaSSTSASCoeffs
//        {
//            // Default SST coefficients
//            alphaK1     0.85;
//            alphaK2     1.0;
//            alphaOmega1 0.5;
//            alphaOmega2 0.856;
//            beta1       0.075;
//            beta2       0.0828;
//            betaStar    0.09;
//            gamma1      5/9;
//            gamma2      0.44;
//            a1          0.31;
//            b1          1.0;
//            c1          10.0;
//            F3          no;
//
//            // Default SAS coefficients
//            Cs          0.11;
//            kappa       0.41;
//            zeta2       3.51;
//            sigmaPhi    2.0/3.0;
//            C           2;
//
//            // Delta must be specified for SAS e.g.
//            delta cubeRootVol;
//
//            cubeRootVolCoeffs
//            {}
//        }

    turbulence      on;

    printCoeffs     on;
}


// ************************************************************************* //
