! 1. Base thermo 
! EXTENDED THIRD MILLENIUM IDEAL GAS AND CONDENSED PHASE THERMOCHEMICAL DATABASE
! FOR COMBUSTION WITH UPDATES FROM ACTIVE THERMOCHEMICAL TABLES
! Authors: Elke Goos, Alexander Burcat and Branko Ruscic.
!
! 2. HNNO, CH3O2H thermo
! Marinov, N. M., Pitz, W.J., Westbrook, C.K., Hori, M., and Matsunaga, N. 
! "An Experimental and Kinetic Calculation of the Promotion Effect of Hydrocarbons 
! on the NO-NO2 Conversion in a Flow Reactor", 
! Proceedings of the Combustion Institute, Volume 27, pp. 389-396, 1998. 
! (UCRL-JC-129372). UCRL-WEB-204236
! Review and release date: May 19, 2004.
!
! 3. NCNO, CH3N(NH2)NO2, CH3N(NH2)ONO, NAMMH(=MMH+HNO3) thermo from ARL with chemkin
! fitdata, name changed CH3N(NH2)NO2 -> NO2MMH, CH3N(NH2)ONO -> NONMMH
! A Detailed, Finite-Rate, Chemical Kinetics Mechanism for Monomethylhydrazine-Red
! Fuming Nitric Acid Systems by William R. Anderson, Michael J. McQuaid, 
! Michael J. Nusca, and Anthony J. Kotlar
! ARL February 2010
!
! 4. CH3NNH thermo from Catoire 2002
! L.Catoire and M.Swihart, "Thermochemistry of Species Produced from
! Monomethylhydrazine in Propulsion and Space-Related Applications, "
! Journal of Propulsion and Power, Vol. 18, No. 6, November-December 2002

THERMO ALL
   200.000  1000.000  6000.000
AR                g 5/97AR 1.   0.   0.   0.G   200.000  6000.000 1000.        1
 2.50000000E+00 0.00000000E+00 0.00000000E+00 0.00000000E+00 0.00000000E+00    2
-7.45375000E+02 4.37967491E+00 2.50000000E+00 0.00000000E+00 0.00000000E+00    3
 0.00000000E+00 0.00000000E+00-7.45375000E+02 4.37967491E+00 0.00000000E+00    4
O                 L 1/90O  1.   0.   0.   0.G   200.000  6000.000 1000.        1
 2.54363697E+00-2.73162486E-05-4.19029520E-09 4.95481845E-12-4.79553694E-16    2
 2.92260120E+04 4.92229457E+00 3.16826710E+00-3.27931884E-03 6.64306396E-06    3
-6.12806624E-09 2.11265971E-12 2.91222592E+04 2.05193346E+00 2.99687009E+04    4
O2                RUS 89O  2.   0.   0.   0.G   200.000  6000.000 1000.        1
 3.66096065E+00 6.56365811E-04-1.41149627E-07 2.05797935E-11-1.29913436E-15    2
-1.21597718E+03 3.41536279E+00 3.78245636E+00-2.99673416E-03 9.84730201E-06    3
-9.68129509E-09 3.24372837E-12-1.06394356E+03 3.65767573E+00 0.00000000E+00    4
N                 L 6/88N  1.   0.   0.   0.G   200.000  6000.000 1000.        1
 0.24159429E+01 0.17489065E-03-0.11902369E-06 0.30226244E-10-0.20360983E-14    2
 0.56133775E+05 0.46496095E+01 0.25000000E+01 0.00000000E+00 0.00000000E+00    3
 0.00000000E+00 0.00000000E+00 0.56104638E+05 0.41939088E+01 0.56850013E+05    4
NO                RUS 89N  1.O  1.   0.   0.G   200.000  6000.000 1000.        1
 3.26071234E+00 1.19101135E-03-4.29122646E-07 6.94481463E-11-4.03295681E-15    2
 9.92143132E+03 6.36900518E+00 4.21859896E+00-4.63988124E-03 1.10443049E-05    3
-9.34055507E-09 2.80554874E-12 9.84509964E+03 2.28061001E+00 1.09770882E+04    4
NO2               L 7/88N  1.O  2.   0.   0.G   200.000  6000.000 1000.        1
 0.48847540E+01 0.21723955E-02-0.82806909E-06 0.15747510E-09-0.10510895E-13    2
 0.23164982E+04-0.11741695E+00 0.39440312E+01-0.15854290E-02 0.16657812E-04    3
-0.20475426E-07 0.78350564E-11 0.28966180E+04 0.63119919E+01 0.41124701E+04    4
NO3               ATcT/AN  1.O  3.   0.   0.G   200.000  6000.000 1000.        1
 7.48347702E+00 2.57772064E-03-1.00945831E-06 1.72314063E-10-1.07154008E-14    2
 6.12990474E+03-1.41618136E+01 2.17359330E+00 1.04902685E-02 1.10472669E-05    3
-2.81561867E-08 1.36583960E-11 7.81290905E+03 1.46022090E+01 8.97563416E+03    4
N2                G 8/02N  2.   0.   0.   0.G   200.000  6000.000 1000.        1
 2.95257637E+00 1.39690040E-03-4.92631603E-07 7.86010195E-11-4.60755204E-15    2
-9.23948688E+02 5.87188762E+00 3.53100528E+00-1.23660988E-04-5.02999433E-07    3
 2.43530612E-09-1.40881235E-12-1.04697628E+03 2.96747038E+00 0.00000000E+00    4
N2O               L 7/88N  2.O  1.   0.   0.G   200.000  6000.000 1000.        1
 0.48230729E+01 0.26270251E-02-0.95850872E-06 0.16000712E-09-0.97752302E-14    2
 0.80734047E+04-0.22017208E+01 0.22571502E+01 0.11304728E-01-0.13671319E-04    3
 0.96819803E-08-0.29307182E-11 0.87417746E+04 0.10757992E+02 0.98141682E+04    4
N2O4              ATcT AN  2.O  4.   0.   0.G   200.000  6000.000 1000.        1
 1.15752932E+01 4.01615532E-03-1.57178022E-06 2.68273657E-10-1.66921538E-14    2
-2.96111235E+03-3.19488625E+01 3.02002271E+00 2.95904359E-02-3.01342572E-05    3
 1.42360526E-08-2.44100411E-12-6.79238803E+02 1.18059620E+01 1.29712996E+03    4
H                 L 6/94H  1.   0.   0.   0.G   200.000  6000.000 1000.        1
 0.25000000E+01 0.00000000E+00 0.00000000E+00 0.00000000E+00 0.00000000E+00    2
 0.25473660E+05-0.44668285E+00 0.25000000E+01 0.00000000E+00 0.00000000E+00    3
 0.00000000E+00 0.00000000E+00 0.25473660E+05-0.44668285E+00 0.26219035E+05    4
OH                IU3/03O  1.H  1.   0.   0.G   200.000  6000.000 1000.        1
 2.83853033E+00 1.10741289E-03-2.94000209E-07 4.20698729E-11-2.42289890E-15    2
 3.69780808E+03 5.84494652E+00 3.99198424E+00-2.40106655E-03 4.61664033E-06    3
-3.87916306E-09 1.36319502E-12 3.36889836E+03-1.03998477E-01 4.48613328E+03    4
HO2               T 1/09H  1.O  2.   0.   0.G   200.000  6000.000 1000.        1
 4.17228741E+00 1.88117627E-03-3.46277286E-07 1.94657549E-11 1.76256905E-16    2
 3.10206839E+01 2.95767672E+00 4.30179807E+00-4.74912097E-03 2.11582905E-05    3
-2.42763914E-08 9.29225225E-12 2.64018485E+02 3.71666220E+00 1.47886045E+03    4
NH                ATcT/AN  1.H  1.   0.   0.G   200.000  6000.000 1000.        1
 2.78372644E+00 1.32985888E-03-4.24785573E-07 7.83494442E-11-5.50451310E-15    2
 4.23461945E+04 5.74084863E+00 3.49295037E+00 3.11795720E-04-1.48906628E-06    3
 2.48167402E-09-1.03570916E-12 4.21059722E+04 1.84834973E+00 4.31525130E+04    4
HNO               ATcT/AH  1.N  1.O  1.   0.G   200.000  6000.000 1000.        1
 3.16598124E+00 2.99958892E-03-3.94376786E-07-3.85344089E-11 7.07602668E-15    2
 1.17726311E+04 7.64511172E+00 4.53525574E+00-5.68543377E-03 1.85198540E-05    3
-1.71881225E-08 5.55818157E-12 1.16183003E+04 1.74315886E+00 1.28500657E+04    4
HONO              T 2/14H  1.N  1.O  2.   0.G   200.000  6000.000 1000.        1
 5.59069580E+00 3.76633148E-03-1.32079549E-06 2.10072062E-10-1.24546207E-14    2
-1.16009741E+04-3.66793086E+00 2.55834541E+00 1.11295585E-02-5.09304078E-06    3
-2.76314117E-09 2.40212731E-12-1.07324351E+04 1.21891248E+01-9.52431352E+03    4
HNO2              T 9/11H  1.N  1.O  2.   0.G   200.000  6000.000 1000.        1
 5.79182717E+00 3.65162554E-03-1.29293390E-06 2.06892796E-10-1.23154749E-14    2
-1.15953895E+04-4.05538852E+00 3.21415915E+00 8.12778066E-03 1.65998916E-06    3
-9.52814708E-09 4.87131424E-12-1.07830727E+04 9.82200056E+00-9.46538040E+03    4
HNO3              T 8/03H  1.N  1.O  3.   0.G   200.000  6000.000 1000.        1
 8.03098942E+00 4.46958589E-03-1.72459491E-06 2.91556153E-10-1.80102702E-14    2
-1.93138183E+04-1.62616537E+01 1.69329154E+00 1.90167702E-02-8.25176697E-06    3
-6.06113827E-09 4.65236978E-12-1.74198909E+04 1.71839838E+01-1.61524852E+04    4
NNH               T 8/11N  2.H  1.   0.   0.G   200.000  6000.000 1000.        1
 3.42744423E+00 3.23295234E-03-1.17296299E-06 1.90508356E-10-1.14491506E-14    2
 2.87676026E+04 6.39209233E+00 4.25474632E+00-3.45098298E-03 1.37788699E-05    3
-1.33263744E-08 4.41023397E-12 2.87932080E+04 3.28551762E+00 3.00058572E+04    4
HNNO              103190H  1.N  2.O  1.   0.G   200.000  6000.000 1500.        1
 6.99121700e+00 1.87597000e-03-2.12458400e-07-6.71047200e-11 1.23050800e-14    2
 2.49756600e+04-1.12352300e+01 2.23829800e+00 1.35920000e-02-1.17987300e-05    3
 5.39297100e-09-1.01085900e-12 2.66025900e+04 1.41367900e+01                   4
H2                T 2/17H  2.   0.   0.   0.G   200.000  6000.000 1000.        1
 2.98711895E+00 7.36069465E-04-9.00982609E-08-7.41224720E-13 6.58618037E-16    2
-8.35448659E+02-1.33268877E+00 3.50207268E+00 8.65475654E-05-2.63683344E-07    3
 3.37306621E-10-2.92359706E-14-1.04631279E+03-4.25875759E+00 0.00000000E+00    4
H2O               L 5/89H  2.O  1.   0.   0.G   200.000  6000.000 1000.        1
 0.26770389E+01 0.29731816E-02-0.77376889E-06 0.94433514E-10-0.42689991E-14    2
-0.29885894E+05 0.68825500E+01 0.41986352E+01-0.20364017E-02 0.65203416E-05    3
-0.54879269E-08 0.17719680E-11-0.30293726E+05-0.84900901E+00-0.29084817E+05    4
H2O2              T 8/03H  2.O  2.   0.   0.G   200.000  6000.000 1000.        1
 4.57977305E+00 4.05326003E-03-1.29844730E-06 1.98211400E-10-1.13968792E-14    2
-1.80071775E+04 6.64970694E-01 4.31515149E+00-8.47390622E-04 1.76404323E-05    3
-2.26762944E-08 9.08950158E-12-1.77067437E+04 3.27373319E+00-1.63425145E+04    4
NH2               IU3/03N  1.H  2.   0.   0.G   200.000  6000.000 1000.        1
 2.59263049E+00 3.47683597E-03-1.08271624E-06 1.49342558E-10-5.75241187E-15    2
 2.15737320E+04 7.90565351E+00 4.19198016E+00-2.04602827E-03 6.67756134E-06    3
-5.24907235E-09 1.55589948E-12 2.11863286E+04-9.04785244E-02 2.23945849E+04    4
HNOH              T11/11H  2.N  1.O  1.   0.G   200.000  6000.000 1000.        1
 3.98321933E+00 4.88846374E-03-1.65086637E-06 2.55371446E-10-1.48308561E-14    2
 1.05780106E+04 3.62582838E+00 3.95608248E+00-3.02611020E-03 2.56874396E-05    3
-3.15645120E-08 1.24084574E-11 1.09199790E+04 5.55950983E+00 1.21354115E+04    4
NH2O              T12/15N  1.H  2.O  1.   0.G   200.000  6000.000 1000.        1
 3.75555917E+00 5.16219350E-03-1.76387385E-06 2.75052688E-10-1.60643140E-14    2
 6.33299817E+03 4.96902221E+00 3.93201139E+00-1.64028155E-04 1.39161409E-05    3
-1.62747853E-08 6.00352834E-12 6.52652615E+03 5.24806221E+00 7.78518518E+03    4
N2H2              T 9/11N  2.H  2.   0.   0.G   200.000  6000.000 1000.        1
 1.31115117E+00 9.00187208E-03-3.14911824E-06 4.81449581E-10-2.71897891E-14    2
 2.33863341E+04 1.64091067E+01 4.91066031E+00-1.07791880E-02 3.86516489E-05    3
-3.86501698E-08 1.34852134E-11 2.28241901E+04 9.10273396E-02 2.40806734E+04    4
NH3               RUS 89N  1.H  3.   0.   0.G   200.000  6000.000 1000.        1
 2.71709692E+00 5.56856338E-03-1.76886396E-06 2.67417260E-10-1.52731419E-14    2
-6.58451989E+03 6.09289837E+00 4.30177808E+00-4.77127330E-03 2.19341619E-05    3
-2.29856489E-08 8.28992268E-12-6.74806394E+03-6.90644393E-01-5.52528050E+03    4
N2H3              T 7/11N  2.H  3.   0.   0.G   200.000  6000.000 1000.        1
 4.04483566E+00 7.31130186E-03-2.47625799E-06 3.83733021E-10-2.23107573E-14    2
 2.53241420E+04 2.88423392E+00 3.42125505E+00 1.34901590E-03 2.23459071E-05    3
-2.99727732E-08 1.20978970E-11 2.58198956E+04 7.83176309E+00 2.70438066E+04    4
N2H4              L 5/90N  2.H  4.   0.   0.G   200.000  6000.000 1000.        1
 4.93957357E+00 8.75017187E-03-2.99399058E-06 4.67278418E-10-2.73068599E-14    2
 9.28265548E+03-2.69439772E+00 3.83472149E+00-6.49129555E-04 3.76848463E-05    3
-5.00709182E-08 2.03362064E-11 1.00893925E+04 5.75272030E+00 1.14474575E+04    4
C                 L 7/88C  1.   0.   0.   0.G   200.000  6000.000 1000.        1
 0.26055830E+01-0.19593434E-03 0.10673722E-06-0.16423940E-10 0.81870580E-15    2
 0.85411742E+05 0.41923868E+01 0.25542395E+01-0.32153772E-03 0.73379223E-06    3
-0.73223487E-09 0.26652144E-12 0.85442681E+05 0.45313085E+01 0.86195097E+05    4
CO                RUS 79C  1.O  1.   0.   0.G   200.000  6000.000 1000.        1
 0.30484859E+01 0.13517281E-02-0.48579405E-06 0.78853644E-10-0.46980746E-14    2
-0.14266117E+05 0.60170977E+01 0.35795335E+01-0.61035369E-03 0.10168143E-05    3
 0.90700586E-09-0.90442449E-12-0.14344086E+05 0.35084093E+01-0.13293628E+05    4
CO2               L 7/88C  1.O  2.   0.   0.G   200.000  6000.000 1000.        1
 0.46365111E+01 0.27414569E-02-0.99589759E-06 0.16038666E-09-0.91619857E-14    2
-0.49024904E+05-0.19348955E+01 0.23568130E+01 0.89841299E-02-0.71220632E-05    3
 0.24573008E-08-0.14288548E-12-0.48371971E+05 0.99009035E+01-0.47328105E+05    4
CN                IU8/03C  1.N  1.   0.   0.G   200.000  6000.000 1000.        1
 3.39912850E+00 7.46548662E-04-1.41493852E-07 1.86747736E-11-1.26032540E-15    2
 5.16569715E+04 4.67148681E+00 3.61256069E+00-9.53015737E-04 2.13757271E-06    3
-3.05001808E-10-4.70518097E-13 5.17084034E+04 3.98238722E+00 5.27611901E+04    4
NCO               A 5/05N  1.C  1.O  1.   0.G   200.000  6000.000 1000.        1
 5.08064474E+00 2.37443587E-03-9.07098904E-07 1.52286713E-10-9.31009234E-15    2
 1.35781204E+04-2.15734434E+00 2.77405177E+00 9.24523481E-03-9.91773586E-06    3
 6.68461303E-09-2.09520542E-12 1.42369570E+04 9.75458670E+00 1.53995606E+04    4
NCN               T 5/14C  1.N  2.   0.   0.G   200.000  6000.000 1000.        1
 5.68744173E+00 1.82662756E-03-7.07546249E-07 1.19515592E-10-7.31827071E-15    2
 5.15901177E+04-6.31954433E+00 2.79807977E+00 1.00008683E-02-9.59229469E-06    3
 4.75546842E-09-1.04340146E-12 5.24021705E+04 8.62129767E+00 5.36050832E+04    4
NCNO                   0N  2.C  1.O  1.   0.G   200.000  6000.000 1000.        1
 0.46970240E+01 0.72260062E-02-0.39746637E-05 0.97222647E-09-0.87124714E-13    2
 0.76913258E+05 0.33835326E+01 0.46942587E+01 0.72331689E-02-0.39827427E-05    3
 0.97795761E-09-0.89174252E-13 0.76914112E+05 0.33981134E+01                   4
CH                IU3/03C  1.H  1.   0.   0.G   200.000  6000.000 1000.        1
 0.25209369E+01 0.17653639E-02-0.46147660E-06 0.59289675E-10-0.33474501E-14    2
 0.70994878E+05 0.74051829E+01 0.34897583E+01 0.32432160E-03-0.16899751E-05    3
 0.31628420E-08-0.14061803E-11 0.70660755E+05 0.20842841E+01 0.71706297E+05    4
HCO               IU5/03C  1.H  1.O  1.   0.G   200.000  6000.000 1000.        1
 4.23892214E+00 1.96576170E-03-3.82075171E-07 4.80137647E-11-3.11176347E-15    2
 2.47261645E+04 1.99698242E+00 4.36380907E+00-5.35204137E-03 2.31954508E-05    3
-2.66109040E-08 1.02711962E-11 2.50108717E+04 2.98106307E+00 2.62312512E+04    4
HOCO              A 5/14C  1.H  1.O  2.   0.G   200.000  6000.000 1000.        1
 6.23290818E+00 3.13211332E-03-1.07780604E-06 1.69172911E-10-9.93556384E-15    2
-4.15774508E+04-6.26834400E+00 2.64591892E+00 1.68882114E-02-2.23302508E-05    3
 1.56624801E-08-4.41990683E-12-4.07756949E+04 1.13178813E+01-3.94046071E+04    4
HCN               ATcT/AH  1.C  1.N  1.   0.G   200.000  6000.000 1000.        1
 3.80231648E+00 3.14630087E-03-1.06315727E-06 1.66185438E-10-9.79891962E-15    2
 1.42849502E+04 1.57501632E+00 2.25901199E+00 1.00510475E-02-1.33514567E-05    3
 1.00920479E-08-3.00880408E-12 1.45903166E+04 8.91631960E+00 1.56111424E+04    4
HNC               ATcT/AH  1.N  1.C  1.   0.G   200.000  6000.000 1000.        1
 4.22248262E+00 2.59458082E-03-8.58480324E-07 1.30744940E-10-7.50339813E-15    2
 2.17156730E+04-7.79706410E-02 2.30186822E+00 1.54157449E-02-3.13261898E-05    3
 3.08816218E-08-1.11912204E-11 2.19306327E+04 8.14749128E+00 2.30810956E+04    4
HOCN              A 5/05H  1.N  1.C  1.O  1.G   200.000  6000.000 1000.        1
 5.28767714E+00 4.01746511E-03-1.40407465E-06 2.22562614E-10-1.31562375E-14    2
-3.77409807E+03-2.64470976E+00 2.88943546E+00 1.16487242E-02-1.08005006E-05    3
 5.44138776E-09-1.06857286E-12-3.15296691E+03 9.51295652E+00-1.85890558E+03    4
HNCO              A 5/05H  1.N  1.C  1.O  1.G   200.000  6000.000 1000.        1
 5.30045051E+00 4.02250821E-03-1.40962280E-06 2.23855342E-10-1.32499966E-14    2
-1.61995274E+04-3.11770684E+00 2.24009031E+00 1.45600497E-02-1.54352330E-05    3
 8.55535028E-09-1.79631611E-12-1.54589951E+04 1.21663775E+01-1.42642740E+04    4
HCNO              A 5/05H  1.N  1.C  1.O  1.G   200.000  6000.000 1000.        1
 5.91979744E+00 4.00114600E-03-1.42063343E-06 2.27569621E-10-1.35504870E-14    2
 1.80385534E+04-8.26935223E+00 6.07949401E-01 2.82182431E-02-4.60451618E-05    3
 3.82559486E-08-1.23226501E-11 1.90714209E+04 1.69199098E+01 2.01698706E+04    4
CH2               IU3/03C  1.H  2.   0.   0.G   200.000  6000.000 1000.        1
 3.11049513E+00 3.73779517E-03-1.37371977E-06 2.23054839E-10-1.33567178E-14    2
 4.59715953E+04 4.62796405E+00 3.84261832E+00-7.36676871E-06 6.16970693E-06    3
-6.96689962E-09 2.64620979E-12 4.58631528E+04 1.27584470E+00 4.70502772E+04    4
CH2(S)            IU3/03C  1.H  2.   0.   0.G   200.000  6000.000 1000.        1
 3.13501686E+00 2.89593926E-03-8.16668090E-07 1.13572697E-10-6.36262835E-15    2
 5.05040504E+04 4.06030621E+00 4.19331325E+00-2.33105184E-03 8.15676451E-06    3
-6.62985981E-09 1.93233199E-12 5.03662246E+04-7.46734310E-01 5.15724919E+04    4
CH2O              T 9/09C  1.H  2.O  1.   0.G   200.000  6000.000 1000.        1
 3.65237205E+00 5.55807060E-03-1.97617181E-06 3.16823378E-10-1.88747598E-14    2
 1.35536156E+04 4.22140840E+00 4.65733258E+00-9.53742306E-03 4.04679152E-05    3
-4.45317569E-08 1.64761516E-11 1.38615127E+04 1.97860732E+00 1.51034947E+04    4
H2CN              T11/11C  1.H  2.N  1.   0.G   200.000  6000.000 1000.        1
 3.80315578E+00 5.47197362E-03-1.95314875E-06 3.13362403E-10-1.86249384E-14    2
 2.71302747E+04 3.31759436E+00 3.97799555E+00-3.43275801E-03 2.59134260E-05    3
-3.04692171E-08 1.16272717E-11 2.74854081E+04 4.43067396E+00 2.86930920E+04    4
H2CNO2            T08/07C  1.H  2.N  1.O  2.G   200.000  6000.000 1000.        1
 7.57504807E+00 7.01471036E-03-2.51481162E-06 4.05670550E-10-2.42796598E-14    2
 1.23880080E+04-1.15985589E+01 2.42742248E+00 1.60496442E-02 2.84727836E-06    3
-1.82218429E-08 9.35383557E-12 1.40120587E+04 1.61086425E+01 1.54427130E+04    4
CH3               IU0702C  1.H  3.   0.   0.G   200.000  6000.000 1000.        1
 0.29781206E+01 0.57978520E-02-0.19755800E-05 0.30729790E-09-0.17917416E-13    2
 0.16509513E+05 0.47224799E+01 0.36571797E+01 0.21265979E-02 0.54583883E-05    3
-0.66181003E-08 0.24657074E-11 0.16422716E+05 0.16735354E+01 0.17643935E+05    4
CH3O              IU1/03C  1.H  3.O  1.   0.G   200.000  6000.000 1000.        1
 4.75779238E+00 7.44142474E-03-2.69705176E-06 4.38090504E-10-2.63537098E-14    2
 3.90139164E+02-1.96680028E+00 3.71180502E+00-2.80463306E-03 3.76550971E-05    3
-4.73072089E-08 1.86588420E-11 1.30772484E+03 6.57240864E+00 2.53773223E+03    4
CH2OH             IU2/03C  1.H  3.O  1.   0.G   200.000  6000.000 1000.        1
 5.09312037E+00 5.94758550E-03-2.06496524E-06 3.23006703E-10-1.88125052E-14    2
-4.05813228E+03-1.84690613E+00 4.47832317E+00-1.35069687E-03 2.78483707E-05    3
-3.64867397E-08 1.47906775E-11-3.52476728E+03 3.30911984E+00-2.06867272E+03    4
CH2NH             T03/17C  1.H  3.N  1.   0.G   200.000  6000.000 1000.        1
 3.44258358E+00 8.37600036E-03-2.97819078E-06 4.77352867E-10-2.84295062E-14    2
 4.29390060E+04 3.95595397E+00 4.79302577E+00-1.26841692E-02 5.69766521E-05    3
-6.34985251E-08 2.37023330E-11 4.33814642E+04 1.10277993E+00 4.46358771E+04    4
CH3NO             T12/09C  1.H  3.N  1.O  1.G   200.000  6000.000 1000.        1
 5.04711802E+00 9.21544305E-03-3.29034831E-06 5.28940397E-10-3.15689858E-14    2
 6.23718102E+03-7.74395570E-01 5.18534727E+00-6.34085575E-03 4.57171139E-05    3
-5.30421813E-08 1.99501601E-11 6.93771506E+03 2.18492659E+00 8.51040025E+03    4
CH3NO2            T 1/18C  1.H  3.N  1.O  2.G   200.000  6000.000 1000.        1
 6.73034842E+00 1.09601258E-02-4.05357802E-06 6.67102087E-10-4.04686702E-14    2
-1.21937763E+04-1.01814199E+01 3.54053692E+00 1.86559419E-03 4.44946734E-05    3
-5.87057333E-08 2.30684585E-11-1.04180260E+04 1.06871367E+01-8.99151002E+03    4
CH3ONO            A 5/05C  1.H  3.O  2.N  1.G   200.000  6000.000 1000.        1
 6.93605239E+00 9.97319424E-03-3.60642537E-06 5.83462161E-10-3.50058729E-14    2
-1.08381899E+04-6.98144573E+00 6.15261387E+00-2.91937431E-03 4.14526828E-05    3
-4.93954776E-08 1.85608328E-11-9.85260262E+03 8.04057190E-01-7.87057806E+03    4
CH3ONO2           T05/98C   1H   3N   1O   3G   200.000  6000.000 1000.        1
 9.77845489E+00 1.10069541E-02-4.25928645E-06 7.18198185E-10-4.42041793E-14    2
-1.88804487E+04-2.39163197E+01 3.91363583E+00 1.52137945E-02 1.73479131E-05    3
-3.37074473E-08 1.44322204E-11-1.66103232E+04 9.44208392E+00-1.46737980E+04    4
CH3NN             T01/07C  1.H  3.N  2.   0.G   200.000  6000.000 1000.        1
 5.03058624E+00 1.01655807E-02-3.80821408E-06 6.28676801E-10-3.81266093E-14    2
 2.60782020E+04-1.37768696E+00 3.03556733E+00 7.89116568E-03 1.45352429E-05    3
-2.24777249E-08 8.99425199E-12 2.70660675E+04 1.09501412E+01 2.84101033E+04    4
CH4               g 8/99C  1.H  4.   0.   0.G   200.000  6000.000 1000.        1
 1.91178600E+00 9.60267960E-03-3.38387841E-06 5.38797240E-10-3.19306807E-14    2
-1.00992136E+04 8.48241861E+00 5.14825732E+00-1.37002410E-02 4.93749414E-05    3
-4.91952339E-08 1.70097299E-11-1.02453222E+04-4.63322726E+00-8.97226656E+03    4
CH3OH             T06/02C  1.H  4.O  1.   0.G   200.000  6000.000 1000.        1
 3.52726795E+00 1.03178783E-02-3.62892944E-06 5.77448016E-10-3.42182632E-14    2
-2.60028834E+04 5.16758693E+00 5.65851051E+00-1.62983419E-02 6.91938156E-05    3
-7.58372926E-08 2.80427550E-11-2.56119736E+04-8.97330508E-01-2.41746056E+04    4
CH3NH             T03/10C  1.H  4.N  1.   0.G   200.000  6000.000 1000.        1
 4.02244380E+00 1.03512061E-02-3.64560169E-06 5.80491587E-10-3.44103829E-14    2
 1.95050854E+04 1.64483768E+00 4.70973738E+00-7.31946952E-03 4.95105509E-05    3
-5.72790480E-08 2.16523586E-11 2.00619432E+04 1.85460205E+00 2.14752744E+04    4
CH3NNH                  C  1.H  4.N  2.   0.G   200.000  6000.000 1000.        1
 0.44681079E+01 0.14494729E-01-0.62432884E-05 0.12729474E-08-0.10000400E-12    2
 0.18072510E+05 0.57547358E+00 0.18617631E+00 0.28852636E-01-0.25765147E-04    3
 0.14370670E-07-0.37518436E-11 0.19138712E+05 0.22104084E+02                   4
CH3NNH2           T02/07C  1.H  5.N  2.   0.G   200.000  6000.000 1000.        1
 6.77444120E+00 1.20667340E-02-4.19822074E-06 6.63042484E-10-3.90816977E-14    2
 2.24045907E+04-9.92485204E+00 3.34217170E+00 1.09604996E-02 2.39704529E-05    3
-4.06075001E-08 1.76012912E-11 2.37899807E+04 1.01530777E+01 2.54134481E+04    4
NO2MMH                 0C  1.H  5.O  2.N  3.G   200.000  6000.000 1000.        1
 0.43362650E+01 0.31133092E-01-0.14817185E-04 0.31249810E-08-0.23958190E-12    2
 0.21787873E+05 0.63812931E+01 0.43266483E+01 0.31183676E-01-0.14928309E-04    3
 0.32339419E-08-0.27838695E-12 0.21789759E+05 0.64260816E+01                   4
ONOMMH                 0C  1.H  5.O  2.N  3.G   200.000  6000.000 1000.        1
 0.55530662E+01 0.29694597E-01-0.14160897E-04 0.29944459E-08-0.23015036E-12    2
 0.35888070E+05 0.41018385E+00 0.55595803E+01 0.29659920E-01-0.14082072E-04    3
 0.29147696E-08-0.20113664E-12 0.35886736E+05 0.37975549E+00                   4
CH3NHNH2          A10/04C  1.H  6.N  2.   0.G   200.000  6000.000 1000.        1
 6.63737309E+00 1.56702023E-02-5.47121574E-06 8.65945432E-10-5.11109616E-14    2
 9.95613633E+03-1.05806558E+01 3.36546357E+00 9.16487019E-03 4.07415430E-05    3
-6.18270852E-08 2.62064026E-11 1.14982139E+04 9.75314576E+00 1.31591158E+04    4
NAMMH                  0C  1.H  7.O  3.N  3.G   200.000  6000.000 1000.        1
 0.52415102E+01 0.39879245E-01-0.18701714E-04 0.39013460E-08-0.29676022E-12    2
-0.26578270E+05 0.73030058E+01 0.52301125E+01 0.39929710E-01-0.18802877E-04    3
 0.39978676E-08-0.33118619E-12-0.26575629E+05 0.73582874E+01                   4
C2N2              ATcT/AC  2.N  2.   0.   0.G   200.000  6000.000 1000.        1
 6.70549520E+00 3.64271185E-03-1.30939702E-06 2.16421413E-10-1.31193815E-14    2
 3.48824335E+04-1.04803146E+01 2.32928126E+00 2.61540993E-02-4.90009889E-05    3
 4.61923035E-08-1.64325831E-11 3.56900732E+04 9.86348075E+00 3.71976220E+04    4
C2H               T 5/10C  2.H  1.   0.   0.G   200.000  6000.000 1000.        1
 3.66270248E+00 3.82492252E-03-1.36632500E-06 2.13455040E-10-1.23216848E-14    2
 6.71683790E+04 3.92205792E+00 2.89867676E+00 1.32988489E-02-2.80733327E-05    3
 2.89484755E-08-1.07502351E-11 6.70616050E+04 6.18547632E+00 6.83210436E+04    4
HCCO              T 4/09H  1.C  2.O  1.   0.G   200.000  6000.000 1000.        1
 5.91479333E+00 3.71408730E-03-1.30137010E-06 2.06473345E-10-1.21476759E-14    2
 1.93596301E+04-5.50567269E+00 1.87607969E+00 2.21205418E-02-3.58869325E-05    3
 3.05402541E-08-1.01281069E-11 2.01633840E+04 1.36968290E+01 2.14444387E+04    4
C2H2              g 1/91C  2.H  2.   0.   0.G   200.000  6000.000 1000.        1
 4.65878489E+00 4.88396667E-03-1.60828888E-06 2.46974544E-10-1.38605959E-14    2
 2.57594042E+04-3.99838194E+00 8.08679682E-01 2.33615762E-02-3.55172234E-05    3
 2.80152958E-08-8.50075165E-12 2.64289808E+04 1.39396761E+01 2.74459950E+04    4
CH2CO             g 4/02C  2.H  2.O  1.   0.G   200.000  6000.000 1000.        1
 5.75871449E+00 6.35124053E-03-2.25955361E-06 3.62321512E-10-2.15855515E-14    2
-8.08533464E+03-4.96490444E+00 2.13241136E+00 1.81319455E-02-1.74093315E-05    3
 9.35336040E-09-2.01724844E-12-7.14808520E+03 1.33807969E+01-5.84267744E+03    4
HCCOH             T12/09C  2.H  2.O  1.   0.G   200.000  6000.000 1000.        1
 6.37509678E+00 5.49429011E-03-1.88136576E-06 2.93803536E-10-1.71771901E-14    2
 8.93277676E+03-8.24498007E+00 2.05541154E+00 2.52003372E-02-3.80821654E-05    3
 3.09890632E-08-9.89799902E-12 9.76872113E+03 1.22271534E+01 1.12217316E+04    4
C2H3              ATcT/AC  2.H  3.   0.   0.G   200.000  6000.000 1000.        1
 4.15026763E+00 7.54021341E-03-2.62997847E-06 4.15974048E-10-2.45407509E-14    2
 3.38566380E+04 1.72812235E+00 3.36377642E+00 2.65765722E-04 2.79620704E-05    3
-3.72986942E-08 1.51590176E-11 3.44749589E+04 7.91510092E+00 3.56701718E+04    4
CH2CHO            T04/06C  2.H  3.O  1.   0.G   200.000  6000.000 1000.        1
 5.91636535E+00 8.84650426E-03-3.14954895E-06 5.05413189E-10-3.01304621E-14    2
-1.04779892E+03-6.10649981E+00 2.66873956E+00 9.62329538E-03 1.60617438E-05    3
-2.87681820E-08 1.25030066E-11 2.19438429E+02 1.25694476E+01 1.53380440E+03    4
C2H4              g 1/00C  2.H  4.   0.   0.G   200.000  6000.000 1000.        1
 3.99182724E+00 1.04833908E-02-3.71721342E-06 5.94628366E-10-3.53630386E-14    2
 4.26865851E+03-2.69081762E-01 3.95920063E+00-7.57051373E-03 5.70989993E-05    3
-6.91588352E-08 2.69884190E-11 5.08977598E+03 4.09730213E+00 6.31426266E+03    4
CH3CHO            L 8/88C  2.H  4.O  1.   0.G   200.000  6000.000 1000.        1
 0.54041108E+01 0.11723059E-01-0.42263137E-05 0.68372451E-09-0.40984863E-13    2
-0.22593122E+05-0.34807917E+01 0.47294595E+01-0.31932858E-02 0.47534921E-04    3
-0.57458611E-07 0.21931112E-10-0.21572878E+05 0.41030159E+01-0.19987949E+05    4
C2H4O             L 8/88C  2.H  4.O  1.   0.G   200.000  6000.000 1000.        1
 0.54887641E+01 0.12046190E-01-0.43336931E-05 0.70028311E-09-0.41949088E-13    2
-0.91804251E+04-0.70799605E+01 0.37590532E+01-0.94412180E-02 0.80309721E-04    3
-0.10080788E-06 0.40039921E-10-0.75608143E+04 0.78497475E+01-0.63304657E+04    4
C2H5              IU1/07C  2.H  5.   0.   0.G   200.000  6000.000 1000.        1
 4.32195633E+00 1.23930542E-02-4.39680960E-06 7.03519917E-10-4.18435239E-14    2
 1.21759475E+04 1.71103809E-01 4.24185905E+00-3.56905235E-03 4.82667202E-05    3
-5.85401009E-08 2.25804514E-11 1.29690344E+04 4.44703782E+00 1.43965189E+04    4
C2H6              g 8/88C  2.H  6.   0.   0.G   200.000  6000.000 1000.        1
 4.04666411E+00 1.53538802E-02-5.47039485E-06 8.77826544E-10-5.23167531E-14    2
-1.24473499E+04-9.68698313E-01 4.29142572E+00-5.50154901E-03 5.99438458E-05    3
-7.08466469E-08 2.68685836E-11-1.15222056E+04 2.66678994E+00-1.00849652E+04    4
CH3NNCH3          T10/15C  2.H  6.N  2.   0.G   200.000  6000.000 1000.        1
 7.27217536E+00 1.76238311E-02-6.34553684E-06 1.02572234E-09-6.14509707E-14    2
 1.96805763E+04-1.31904515E+01 6.43140410E+00-3.04519571E-03 6.24212495E-05    3
-7.35825911E-08 2.72898742E-11 2.11154122E+04-3.06536925E+00 2.33165442E+04    4
CH2(T)            IU3/03C  1.H  2.   0.   0.G   200.000  6000.000 1000.        1
 3.14631886E+00 3.03671259E-03-9.96474439E-07 1.50483580E-10-8.57335515E-15    2
 4.60412605E+04 4.72341711E+00 3.71757846E+00 1.27391260E-03 2.17347251E-06    3
-3.48858500E-09 1.65208866E-12 4.58723866E+04 1.75297945E+00 4.70502772E+04    4
C3H4(A)           L 8/89C   3H   4    0    0G   200.000  6000.000 1000.        1
 0.63168722E+01 0.11133728E-01-0.39629378E-05 0.63564238E-09-0.37875540E-13    2
 0.20117495E+05-0.10995766E+02 0.26130445E+01 0.12122575E-01 0.18539880E-04    3
-0.34525149E-07 0.15335079E-10 0.21541567E+05 0.10226139E+02 0.22962267E+05    4
C3H4(P)           T 7/11C  3.H  4.   0.   0.G   200.000  6000.000 1000.        1
 6.28078872E+00 1.12393798E-02-4.01957416E-06 6.46920405E-10-3.86433056E-14    2
 3.11629635E+04-1.11420363E+01 2.24666571E+00 5.76237942E-03 4.42080338E-05    3
-6.62906810E-08 2.81824735E-11 3.29498944E+04 1.33451493E+01 3.41487352E+04    4
CH2NO2            T08/07C  1.H  2.N  1.O  2.G   200.000  6000.000 1000.        1
 7.57504807E+00 7.01471036E-03-2.51481162E-06 4.05670550E-10-2.42796598E-14    2
 1.23880080E+04-1.15985589E+01 2.42742248E+00 1.60496442E-02 2.84727836E-06    3
-1.82218429E-08 9.35383557E-12 1.40120587E+04 1.61086425E+01 1.54427130E+04    4
C2H5O             T05/11C  2.H  5.O  1.   0.G   200.000  6000.000 1000.        1
 7.01348674E+00 1.20204391E-02-4.21992012E-06 6.70675981E-10-3.97135273E-14    2
-6.16161779E+03-8.62052409E+00 4.20954137E+00 9.12964578E-03 2.47462263E-05    3
-3.92945764E-08 1.66541312E-11-4.91511371E+03 8.30445413E+00-3.10541451E+03    4
C2H6N2            T10/15C  2.H  6.N  2.   0.G   200.000  6000.000 1000.        1
 7.27217536E+00 1.76238311E-02-6.34553684E-06 1.02572234E-09-6.14509707E-14    2
 1.96805763E+04-1.31904515E+01 6.43140410E+00-3.04519571E-03 6.24212495E-05    3
-7.35825911E-08 2.72898742E-11 2.11154122E+04-3.06536925E+00 2.33165442E+04    4
C3H3              T 7/11C  3.H  3.   0.   0.G   200.000  6000.000 1000.        1
 7.14221719E+00 7.61902211E-03-2.67460030E-06 4.24914904E-10-2.51475443E-14    2